// Generated by amp topo opt program
simulator lang=spectre
global 0
// Header end
